# Yggdrasil Project: Cognitio
# 
! B3LYP OPT def2-SVP
%PAL NPROCS 8 END

* xyz 0 1
   C       -4.84364        2.05792        0.00000
   H       -3.77364        2.05792        0.00000
   H       -5.20030        2.35867        0.96293
   H       -5.20031        1.07362       -0.22101
   H       -5.20031        2.74147       -0.74192
*